<?xml version='1.0' encoding='UTF-8' standalone='yes' ?><hierarchy rotation="0"><node index="0" text="" resource-id="" class="android.widget.FrameLayout" package="eu.smartpatient.mytherapy" content-desc="" checkable="false" checked="false" clickable="false" enabled="true" focusable="false" focused="false" scrollable="false" long-clickable="false" password="false" selected="false" bounds="[0,0][1080,2400]" drawing-order="0" hint=""><node index="0" text="" resource-id="" class="android.widget.LinearLayout" package="eu.smartpatient.mytherapy" content-desc="" checkable="false" checked="false" clickable="false" enabled="true" focusable="false" focused="false" scrollable="false" long-clickable="false" password="false" selected="false" bounds="[0,0][1080,2400]" drawing-order="2" hint=""><node index="0" text="" resource-id="" class="android.widget.FrameLayout" package="eu.smartpatient.mytherapy" content-desc="" checkable="false" checked="false" clickable="false" enabled="true" focusable="false" focused="false" scrollable="false" long-clickable="false" password="false" selected="false" bounds="[0,0][1080,2400]" drawing-order="2" hint=""><node index="0" text="" resource-id="eu.smartpatient.mytherapy:id/action_bar_root" class="android.widget.LinearLayout" package="eu.smartpatient.mytherapy" content-desc="" checkable="false" checked="false" clickable="false" enabled="true" focusable="false" focused="false" scrollable="false" long-clickable="false" password="false" selected="false" bounds="[0,0][1080,2400]" drawing-order="1" hint=""><node index="0" text="" resource-id="android:id/content" class="android.widget.FrameLayout" package="eu.smartpatient.mytherapy" content-desc="" checkable="false" checked="false" clickable="false" enabled="true" focusable="false" focused="false" scrollable="false" long-clickable="false" password="false" selected="false" bounds="[0,0][1080,2400]" drawing-order="2" hint=""><node index="0" text="" resource-id="" class="androidx.compose.ui.platform.c" package="eu.smartpatient.mytherapy" content-desc="" checkable="false" checked="false" clickable="false" enabled="true" focusable="false" focused="false" scrollable="false" long-clickable="false" password="false" selected="false" bounds="[0,0][1080,2400]" drawing-order="1" hint=""><node index="0" text="" resource-id="" class="android.view.View" package="eu.smartpatient.mytherapy" content-desc="" checkable="false" checked="false" clickable="false" enabled="true" focusable="false" focused="false" scrollable="false" long-clickable="false" password="false" selected="false" bounds="[0,0][1080,2400]" drawing-order="0" hint=""><node index="0" text="" resource-id="" class="android.view.View" package="eu.smartpatient.mytherapy" content-desc="" checkable="false" checked="false" clickable="false" enabled="true" focusable="false" focused="false" scrollable="false" long-clickable="false" password="false" selected="false" bounds="[0,0][1080,2200]" drawing-order="0" hint=""><node index="0" text="" resource-id="" class="android.view.View" package="eu.smartpatient.mytherapy" content-desc="" checkable="false" checked="false" clickable="false" enabled="true" focusable="false" focused="false" scrollable="false" long-clickable="false" password="false" selected="false" bounds="[0,0][1080,2200]" drawing-order="0" hint=""><node index="0" text="" resource-id="" class="android.view.View" package="eu.smartpatient.mytherapy" content-desc="" checkable="false" checked="false" clickable="false" enabled="true" focusable="false" focused="false" scrollable="false" long-clickable="false" password="false" selected="false" bounds="[0,234][1080,607]" drawing-order="0" hint=""><node index="0" text="¡Bienvenido ElRobin! ☀️" resource-id="" class="android.widget.TextView" package="eu.smartpatient.mytherapy" content-desc="" checkable="false" checked="false" clickable="false" enabled="true" focusable="false" focused="false" scrollable="false" long-clickable="false" password="false" selected="false" bounds="[40,491][1040,566]" drawing-order="0" hint="" /><node index="1" text="" resource-id="" class="android.view.View" package="eu.smartpatient.mytherapy" content-desc="" checkable="false" checked="false" clickable="false" enabled="true" focusable="false" focused="false" scrollable="false" long-clickable="false" password="false" selected="false" bounds="[40,547][1040,607]" drawing-order="1" hint="" /><node index="2" text="" resource-id="" class="android.view.View" package="eu.smartpatient.mytherapy" content-desc="" checkable="false" checked="false" clickable="false" enabled="true" focusable="false" focused="false" scrollable="false" long-clickable="false" password="false" selected="false" bounds="[0,234][1080,451]" drawing-order="2" hint=""><node index="0" text="" resource-id="" class="android.view.View" package="eu.smartpatient.mytherapy" content-desc="" checkable="false" checked="false" clickable="false" enabled="true" focusable="false" focused="false" scrollable="false" long-clickable="false" password="false" selected="false" bounds="[0,234][1080,430]" drawing-order="0" hint=""><node index="0" text="Sáb." resource-id="" class="android.widget.TextView" package="eu.smartpatient.mytherapy" content-desc="Sábado" checkable="false" checked="false" clickable="false" enabled="true" focusable="false" focused="false" scrollable="false" long-clickable="false" password="false" selected="false" bounds="[38,259][118,295]" drawing-order="0" hint="" /><node index="1" text="Dom." resource-id="" class="android.widget.TextView" package="eu.smartpatient.mytherapy" content-desc="Domingo" checkable="false" checked="false" clickable="false" enabled="true" focusable="false" focused="false" scrollable="false" long-clickable="false" password="false" selected="false" bounds="[193,259][273,295]" drawing-order="1" hint="" /><node index="2" text="Lun." resource-id="" class="android.widget.TextView" package="eu.smartpatient.mytherapy" content-desc="Lunes" checkable="false" checked="false" clickable="false" enabled="true" focusable="false" focused="false" scrollable="false" long-clickable="false" password="false" selected="false" bounds="[347,259][427,295]" drawing-order="2" hint="" /><node index="3" text="Mar." resource-id="" class="android.widget.TextView" package="eu.smartpatient.mytherapy" content-desc="Martes" checkable="false" checked="false" clickable="false" enabled="true" focusable="false" focused="false" scrollable="false" long-clickable="false" password="false" selected="false" bounds="[501,259][581,295]" drawing-order="3" hint="" /><node index="4" text="Mié." resource-id="" class="android.widget.TextView" package="eu.smartpatient.mytherapy" content-desc="Miércoles" checkable="false" checked="false" clickable="false" enabled="true" focusable="false" focused="false" scrollable="false" long-clickable="false" password="false" selected="false" bounds="[655,259][735,295]" drawing-order="4" hint="" /><node index="5" text="Jue." resource-id="" class="android.widget.TextView" package="eu.smartpatient.mytherapy" content-desc="Jueves" checkable="false" checked="false" clickable="false" enabled="true" focusable="false" focused="false" scrollable="false" long-clickable="false" password="false" selected="false" bounds="[809,259][889,295]" drawing-order="5" hint="" /><node index="6" text="Vie." resource-id="" class="android.widget.TextView" package="eu.smartpatient.mytherapy" content-desc="Viernes" checkable="false" checked="false" clickable="false" enabled="true" focusable="false" focused="false" scrollable="false" long-clickable="false" password="false" selected="false" bounds="[963,259][1043,295]" drawing-order="6" hint="" /><node index="7" text="" resource-id="" class="android.view.View" package="eu.smartpatient.mytherapy" content-desc="" checkable="false" checked="false" clickable="false" enabled="true" focusable="false" focused="false" scrollable="true" long-clickable="false" password="false" selected="false" bounds="[0,300][1080,430]" drawing-order="7" hint=""><node index="0" text="" resource-id="" class="android.view.View" package="eu.smartpatient.mytherapy" content-desc="" checkable="false" checked="false" clickable="true" enabled="true" focusable="true" focused="false" scrollable="false" long-clickable="false" password="false" selected="false" bounds="[18,305][138,425]" drawing-order="0" hint=""><node index="0" text="30" resource-id="" class="android.widget.TextView" package="eu.smartpatient.mytherapy" content-desc="30-may" checkable="false" checked="false" clickable="false" enabled="true" focusable="false" focused="false" scrollable="false" long-clickable="false" password="false" selected="false" bounds="[43,340][113,391]" drawing-order="0" hint="" /></node><node index="1" text="" resource-id="" class="android.view.View" package="eu.smartpatient.mytherapy" content-desc="" checkable="false" checked="false" clickable="true" enabled="true" focusable="true" focused="false" scrollable="false" long-clickable="false" password="false" selected="false" bounds="[173,305][293,425]" drawing-order="1" hint=""><node index="0" text="31" resource-id="" class="android.widget.TextView" package="eu.smartpatient.mytherapy" content-desc="31-may" checkable="false" checked="false" clickable="false" enabled="true" focusable="false" focused="false" scrollable="false" long-clickable="false" password="false" selected="false" bounds="[198,340][268,391]" drawing-order="0" hint="" /></node><node index="2" text="" resource-id="" class="android.view.View" package="eu.smartpatient.mytherapy" content-desc="" checkable="false" checked="false" clickable="true" enabled="true" focusable="true" focused="false" scrollable="false" long-clickable="false" password="false" selected="false" bounds="[327,305][447,425]" drawing-order="2" hint=""><node index="0" text="1" resource-id="" class="android.widget.TextView" package="eu.smartpatient.mytherapy" content-desc="01-jun" checkable="false" checked="false" clickable="false" enabled="true" focusable="false" focused="false" scrollable="false" long-clickable="false" password="false" selected="false" bounds="[352,340][422,391]" drawing-order="0" hint="" /></node><node index="3" text="" resource-id="" class="android.view.View" package="eu.smartpatient.mytherapy" content-desc="" checkable="false" checked="false" clickable="false" enabled="true" focusable="false" focused="false" scrollable="false" long-clickable="false" password="false" selected="false" bounds="[496,320][586,410]" drawing-order="3" hint=""><node index="0" text="2" resource-id="" class="android.widget.TextView" package="eu.smartpatient.mytherapy" content-desc="02-jun" checkable="false" checked="false" clickable="false" enabled="true" focusable="false" focused="false" scrollable="false" long-clickable="false" password="false" selected="false" bounds="[506,340][576,391]" drawing-order="0" hint="" /></node><node index="4" text="" resource-id="" class="android.view.View" package="eu.smartpatient.mytherapy" content-desc="" checkable="false" checked="false" clickable="true" enabled="true" focusable="true" focused="false" scrollable="false" long-clickable="false" password="false" selected="false" bounds="[635,305][755,425]" drawing-order="4" hint=""><node index="0" text="3" resource-id="" class="android.widget.TextView" package="eu.smartpatient.mytherapy" content-desc="03-jun" checkable="false" checked="false" clickable="false" enabled="true" focusable="false" focused="false" scrollable="false" long-clickable="false" password="false" selected="false" bounds="[660,340][730,391]" drawing-order="0" hint="" /></node><node index="5" text="" resource-id="" class="android.view.View" package="eu.smartpatient.mytherapy" content-desc="" checkable="false" checked="false" clickable="true" enabled="true" focusable="true" focused="false" scrollable="false" long-clickable="false" password="false" selected="false" bounds="[789,305][909,425]" drawing-order="5" hint=""><node index="0" text="4" resource-id="" class="android.widget.TextView" package="eu.smartpatient.mytherapy" content-desc="04-jun" checkable="false" checked="false" clickable="false" enabled="true" focusable="false" focused="false" scrollable="false" long-clickable="false" password="false" selected="false" bounds="[814,340][884,391]" drawing-order="0" hint="" /></node><node index="6" text="" resource-id="" class="android.view.View" package="eu.smartpatient.mytherapy" content-desc="" checkable="false" checked="false" clickable="true" enabled="true" focusable="true" focused="false" scrollable="false" long-clickable="false" password="false" selected="false" bounds="[943,305][1063,425]" drawing-order="6" hint=""><node index="0" text="5" resource-id="" class="android.widget.TextView" package="eu.smartpatient.mytherapy" content-desc="05-jun" checkable="false" checked="false" clickable="false" enabled="true" focusable="false" focused="false" scrollable="false" long-clickable="false" password="false" selected="false" bounds="[968,340][1038,391]" drawing-order="0" hint="" /></node></node></node><node index="1" text="" resource-id="" class="android.view.View" package="eu.smartpatient.mytherapy" content-desc="" checkable="false" checked="false" clickable="false" enabled="true" focusable="false" focused="false" scrollable="false" long-clickable="false" password="false" selected="false" bounds="[0,380][60,500]" drawing-order="1" hint="" /><node index="2" text="" resource-id="" class="android.view.View" package="eu.smartpatient.mytherapy" content-desc="" checkable="false" checked="false" clickable="false" enabled="true" focusable="false" focused="false" scrollable="false" long-clickable="false" password="false" selected="false" bounds="[0,391][1080,511]" drawing-order="2" hint=""><node index="0" text="" resource-id="" class="android.view.View" package="eu.smartpatient.mytherapy" content-desc="" checkable="false" checked="false" clickable="false" enabled="true" focusable="false" focused="false" scrollable="false" long-clickable="false" password="false" selected="false" bounds="[40,391][1080,511]" drawing-order="0" hint="" /></node></node></node><node index="1" text="" resource-id="" class="android.view.View" package="eu.smartpatient.mytherapy" content-desc="" checkable="false" checked="false" clickable="false" enabled="true" focusable="false" focused="false" scrollable="false" long-clickable="false" password="false" selected="false" bounds="[0,234][1080,2200]" drawing-order="1" hint=""><node index="0" text="" resource-id="" class="android.widget.ScrollView" package="eu.smartpatient.mytherapy" content-desc="" checkable="false" checked="false" clickable="false" enabled="true" focusable="false" focused="false" scrollable="false" long-clickable="false" password="false" selected="false" bounds="[0,607][1080,2200]" drawing-order="0" hint=""><node index="0" text="" resource-id="" class="android.view.View" package="eu.smartpatient.mytherapy" content-desc="" checkable="false" checked="false" clickable="false" enabled="true" focusable="false" focused="false" scrollable="false" long-clickable="false" password="false" selected="false" bounds="[295,939][785,1434]" drawing-order="0" hint="" /><node index="1" text="Todas las tareas de un vistazo" resource-id="" class="android.widget.TextView" package="eu.smartpatient.mytherapy" content-desc="" checkable="false" checked="false" clickable="false" enabled="true" focusable="false" focused="false" scrollable="false" long-clickable="false" password="false" selected="false" bounds="[40,1494][1040,1554]" drawing-order="1" hint="" /><node index="2" text="" resource-id="todayGoToTreatment" class="android.view.View" package="eu.smartpatient.mytherapy" content-desc="" checkable="false" checked="false" clickable="true" enabled="true" focusable="true" focused="false" scrollable="false" long-clickable="false" password="false" selected="false" bounds="[40,1602][1040,1722]" drawing-order="2" hint=""><node index="0" text="Ir a Terapia" resource-id="" class="android.widget.TextView" package="eu.smartpatient.mytherapy" content-desc="" checkable="false" checked="false" clickable="false" enabled="true" focusable="false" focused="false" scrollable="false" long-clickable="false" password="false" selected="false" bounds="[434,1636][646,1687]" drawing-order="0" hint="" /><node index="1" text="" resource-id="" class="android.widget.Button" package="eu.smartpatient.mytherapy" content-desc="" checkable="false" checked="false" clickable="false" enabled="true" focusable="false" focused="false" scrollable="false" long-clickable="false" password="false" selected="false" bounds="[40,1614][1040,1709]" drawing-order="1" hint="" /></node></node></node><node index="2" text="" resource-id="" class="android.view.View" package="eu.smartpatient.mytherapy" content-desc="" checkable="false" checked="false" clickable="false" enabled="true" focusable="false" focused="false" scrollable="false" long-clickable="false" password="false" selected="false" bounds="[0,94][1080,234]" drawing-order="2" hint=""><node index="0" text="Hoy" resource-id="toolbarTitle" class="android.widget.TextView" package="eu.smartpatient.mytherapy" content-desc="" checkable="false" checked="false" clickable="false" enabled="true" focusable="false" focused="false" scrollable="false" long-clickable="false" password="false" selected="false" bounds="[40,134][130,194]" drawing-order="0" hint="" /></node><node index="3" text="" resource-id="fabButton" class="android.view.View" package="eu.smartpatient.mytherapy" content-desc="" checkable="false" checked="false" clickable="true" enabled="true" focusable="true" focused="false" scrollable="false" long-clickable="false" password="false" selected="false" bounds="[756,2040][1040,2160]" drawing-order="3" hint=""><node index="0" text="Añadir" resource-id="" class="android.widget.TextView" package="eu.smartpatient.mytherapy" content-desc="" checkable="false" checked="false" clickable="false" enabled="true" focusable="false" focused="false" scrollable="false" long-clickable="false" password="false" selected="false" bounds="[886,2079][990,2121]" drawing-order="0" hint="" /><node index="1" text="" resource-id="" class="android.widget.Button" package="eu.smartpatient.mytherapy" content-desc="" checkable="false" checked="false" clickable="false" enabled="true" focusable="false" focused="false" scrollable="false" long-clickable="false" password="false" selected="false" bounds="[756,2040][1040,2160]" drawing-order="1" hint="" /></node></node></node><node index="1" text="" resource-id="" class="android.view.View" package="eu.smartpatient.mytherapy" content-desc="" checkable="false" checked="false" clickable="false" enabled="true" focusable="false" focused="false" scrollable="false" long-clickable="false" password="false" selected="false" bounds="[20,2200][1060,2340]" drawing-order="1" hint=""><node index="0" text="" resource-id="tab_bar_today" class="android.view.View" package="eu.smartpatient.mytherapy" content-desc="" checkable="false" checked="false" clickable="false" enabled="true" focusable="true" focused="false" scrollable="false" long-clickable="false" password="false" selected="true" bounds="[20,2200][280,2340]" drawing-order="0" hint=""><node index="0" text="Hoy" resource-id="" class="android.widget.TextView" package="eu.smartpatient.mytherapy" content-desc="" checkable="false" checked="false" clickable="false" enabled="true" focusable="false" focused="false" scrollable="false" long-clickable="false" password="false" selected="false" bounds="[124,2283][177,2319]" drawing-order="0" hint="" /><node index="1" text="" resource-id="" class="android.view.View" package="eu.smartpatient.mytherapy" content-desc="" checkable="false" checked="false" clickable="false" enabled="true" focusable="false" focused="false" scrollable="false" long-clickable="false" password="false" selected="false" bounds="[20,2200][280,2340]" drawing-order="1" hint="" /></node><node index="1" text="" resource-id="tab_bar_progress" class="android.view.View" package="eu.smartpatient.mytherapy" content-desc="" checkable="false" checked="false" clickable="true" enabled="true" focusable="true" focused="false" scrollable="false" long-clickable="false" password="false" selected="false" bounds="[280,2200][540,2340]" drawing-order="1" hint=""><node index="0" text="Progreso" resource-id="" class="android.widget.TextView" package="eu.smartpatient.mytherapy" content-desc="" checkable="false" checked="false" clickable="false" enabled="true" focusable="false" focused="false" scrollable="false" long-clickable="false" password="false" selected="false" bounds="[348,2283][472,2319]" drawing-order="0" hint="" /><node index="1" text="" resource-id="" class="android.view.View" package="eu.smartpatient.mytherapy" content-desc="" checkable="false" checked="false" clickable="false" enabled="true" focusable="false" focused="false" scrollable="false" long-clickable="false" password="false" selected="false" bounds="[280,2200][540,2340]" drawing-order="1" hint="" /></node><node index="2" text="" resource-id="tab_bar_team" class="android.view.View" package="eu.smartpatient.mytherapy" content-desc="" checkable="false" checked="false" clickable="true" enabled="true" focusable="true" focused="false" scrollable="false" long-clickable="false" password="false" selected="false" bounds="[540,2200][800,2340]" drawing-order="2" hint=""><node index="0" text="Soporte" resource-id="" class="android.widget.TextView" package="eu.smartpatient.mytherapy" content-desc="" checkable="false" checked="false" clickable="false" enabled="true" focusable="false" focused="false" scrollable="false" long-clickable="false" password="false" selected="false" bounds="[616,2283][725,2319]" drawing-order="0" hint="" /><node index="1" text="" resource-id="badge" class="android.view.View" package="eu.smartpatient.mytherapy" content-desc="" checkable="false" checked="false" clickable="false" enabled="true" focusable="false" focused="false" scrollable="false" long-clickable="false" password="false" selected="false" bounds="[685,2205][715,2235]" drawing-order="1" hint="" /><node index="2" text="" resource-id="" class="android.view.View" package="eu.smartpatient.mytherapy" content-desc="" checkable="false" checked="false" clickable="false" enabled="true" focusable="false" focused="false" scrollable="false" long-clickable="false" password="false" selected="false" bounds="[540,2200][800,2340]" drawing-order="2" hint="" /></node><node index="3" text="" resource-id="tab_bar_treatment" class="android.view.View" package="eu.smartpatient.mytherapy" content-desc="" checkable="false" checked="false" clickable="true" enabled="true" focusable="true" focused="false" scrollable="false" long-clickable="false" password="false" selected="false" bounds="[800,2200][1060,2340]" drawing-order="3" hint=""><node index="0" text="Terapia" resource-id="" class="android.widget.TextView" package="eu.smartpatient.mytherapy" content-desc="" checkable="false" checked="false" clickable="false" enabled="true" focusable="false" focused="false" scrollable="false" long-clickable="false" password="false" selected="false" bounds="[879,2283][982,2319]" drawing-order="0" hint="" /><node index="1" text="" resource-id="badge" class="android.view.View" package="eu.smartpatient.mytherapy" content-desc="" checkable="false" checked="false" clickable="false" enabled="true" focusable="false" focused="false" scrollable="false" long-clickable="false" password="false" selected="false" bounds="[945,2205][975,2235]" drawing-order="1" hint="" /><node index="2" text="" resource-id="" class="android.view.View" package="eu.smartpatient.mytherapy" content-desc="" checkable="false" checked="false" clickable="false" enabled="true" focusable="false" focused="false" scrollable="false" long-clickable="false" password="false" selected="false" bounds="[800,2200][1060,2340]" drawing-order="2" hint="" /></node></node></node></node></node></node></node></node><node index="1" text="" resource-id="" class="android.widget.FrameLayout" package="eu.smartpatient.mytherapy" content-desc="" checkable="false" checked="false" clickable="false" enabled="true" focusable="false" focused="false" scrollable="false" long-clickable="false" password="false" selected="false" bounds="[0,0][1080,2400]" drawing-order="4" hint=""><node index="0" text="" resource-id="" class="android.view.View" package="eu.smartpatient.mytherapy" content-desc="" checkable="false" checked="false" clickable="false" enabled="true" focusable="false" focused="false" scrollable="false" long-clickable="false" password="false" selected="false" bounds="[0,0][1080,94]" drawing-order="1" hint="" /></node></node></hierarchy>