<?xml version='1.0' encoding='UTF-8' standalone='yes' ?><hierarchy rotation="0"><node index="0" text="" resource-id="" class="android.widget.FrameLayout" package="br.com.ridsoftware.shoppinglist" content-desc="" checkable="false" checked="false" clickable="false" enabled="true" focusable="false" focused="false" scrollable="false" long-clickable="false" password="false" selected="false" bounds="[0,0][1080,2400]" drawing-order="0" hint=""><node index="0" text="" resource-id="" class="android.widget.LinearLayout" package="br.com.ridsoftware.shoppinglist" content-desc="" checkable="false" checked="false" clickable="false" enabled="true" focusable="false" focused="false" scrollable="false" long-clickable="false" password="false" selected="false" bounds="[0,0][1080,2340]" drawing-order="1" hint=""><node index="0" text="" resource-id="" class="android.widget.FrameLayout" package="br.com.ridsoftware.shoppinglist" content-desc="" checkable="false" checked="false" clickable="false" enabled="true" focusable="false" focused="false" scrollable="false" long-clickable="false" password="false" selected="false" bounds="[0,94][1080,1560]" drawing-order="2" hint=""><node index="0" text="" resource-id="br.com.ridsoftware.shoppinglist:id/decor_content_parent" class="android.view.ViewGroup" package="br.com.ridsoftware.shoppinglist" content-desc="" checkable="false" checked="false" clickable="false" enabled="true" focusable="false" focused="false" scrollable="false" long-clickable="false" password="false" selected="false" bounds="[0,94][1080,1560]" drawing-order="1" hint=""><node index="1" text="" resource-id="br.com.ridsoftware.shoppinglist:id/action_bar_container" class="android.widget.FrameLayout" package="br.com.ridsoftware.shoppinglist" content-desc="" checkable="false" checked="false" clickable="false" enabled="true" focusable="false" focused="false" scrollable="false" long-clickable="false" password="false" selected="false" bounds="[0,94][1080,234]" drawing-order="3" hint=""><node index="0" text="" resource-id="br.com.ridsoftware.shoppinglist:id/action_bar" class="android.view.ViewGroup" package="br.com.ridsoftware.shoppinglist" content-desc="" checkable="false" checked="false" clickable="false" enabled="true" focusable="false" focused="false" scrollable="false" long-clickable="false" password="false" selected="false" bounds="[0,94][1080,234]" drawing-order="1" hint=""><node index="0" text="" resource-id="" class="android.widget.ImageButton" package="br.com.ridsoftware.shoppinglist" content-desc="Navegar hacia arriba" checkable="false" checked="false" clickable="true" enabled="true" focusable="true" focused="false" scrollable="false" long-clickable="false" password="false" selected="false" bounds="[0,94][140,234]" drawing-order="2" hint="" /><node index="1" text="Editar el artículo" resource-id="" class="android.widget.TextView" package="br.com.ridsoftware.shoppinglist" content-desc="" checkable="false" checked="false" clickable="false" enabled="true" focusable="false" focused="false" scrollable="false" long-clickable="false" password="false" selected="false" bounds="[180,130][553,197]" drawing-order="1" hint="" /><node index="2" text="" resource-id="" class="androidx.appcompat.widget.LinearLayoutCompat" package="br.com.ridsoftware.shoppinglist" content-desc="" checkable="false" checked="false" clickable="false" enabled="true" focusable="false" focused="false" scrollable="false" long-clickable="false" password="false" selected="false" bounds="[860,94][1080,234]" drawing-order="3" hint=""><node index="0" text="" resource-id="br.com.ridsoftware.shoppinglist:id/action_accept" class="android.widget.Button" package="br.com.ridsoftware.shoppinglist" content-desc="Confirmar" checkable="false" checked="false" clickable="true" enabled="true" focusable="true" focused="false" scrollable="false" long-clickable="false" password="false" selected="false" bounds="[860,104][980,224]" drawing-order="1" hint="" /><node index="1" text="" resource-id="" class="android.widget.ImageView" package="br.com.ridsoftware.shoppinglist" content-desc="Más opciones" checkable="false" checked="false" clickable="true" enabled="true" focusable="true" focused="false" scrollable="false" long-clickable="true" password="false" selected="false" bounds="[980,104][1080,224]" drawing-order="2" hint="" /></node></node></node><node index="2" text="" resource-id="android:id/content" class="android.widget.FrameLayout" package="br.com.ridsoftware.shoppinglist" content-desc="" checkable="false" checked="false" clickable="false" enabled="true" focusable="false" focused="false" scrollable="false" long-clickable="false" password="false" selected="false" bounds="[0,234][1080,1560]" drawing-order="2" hint=""><node index="0" text="" resource-id="" class="android.widget.LinearLayout" package="br.com.ridsoftware.shoppinglist" content-desc="" checkable="false" checked="false" clickable="false" enabled="true" focusable="false" focused="false" scrollable="false" long-clickable="false" password="false" selected="false" bounds="[0,234][1080,1560]" drawing-order="1" hint=""><node index="0" text="" resource-id="br.com.ridsoftware.shoppinglist:id/scrollView1" class="android.widget.ScrollView" package="br.com.ridsoftware.shoppinglist" content-desc="" checkable="false" checked="false" clickable="false" enabled="true" focusable="true" focused="false" scrollable="true" long-clickable="false" password="false" selected="false" bounds="[0,234][1080,1560]" drawing-order="2" hint=""><node index="0" text="" resource-id="" class="android.widget.LinearLayout" package="br.com.ridsoftware.shoppinglist" content-desc="" checkable="false" checked="false" clickable="false" enabled="true" focusable="false" focused="false" scrollable="false" long-clickable="false" password="false" selected="false" bounds="[0,234][1080,1560]" drawing-order="1" hint=""><node index="0" text="" resource-id="" class="android.widget.RelativeLayout" package="br.com.ridsoftware.shoppinglist" content-desc="" checkable="false" checked="false" clickable="false" enabled="true" focusable="false" focused="false" scrollable="false" long-clickable="false" password="false" selected="false" bounds="[40,274][1040,416]" drawing-order="1" hint=""><node index="0" text="" resource-id="br.com.ridsoftware.shoppinglist:id/textInputLayout" class="android.widget.LinearLayout" package="br.com.ridsoftware.shoppinglist" content-desc="" checkable="false" checked="false" clickable="false" enabled="true" focusable="false" focused="false" scrollable="false" long-clickable="false" password="false" selected="false" bounds="[40,274][1040,416]" drawing-order="1" hint=""><node index="0" text="" resource-id="" class="android.widget.FrameLayout" package="br.com.ridsoftware.shoppinglist" content-desc="" checkable="false" checked="false" clickable="false" enabled="true" focusable="false" focused="false" scrollable="false" long-clickable="false" password="false" selected="false" bounds="[40,303][1040,416]" drawing-order="1" hint=""><node index="0" text="Salma's Sanisimas" resource-id="br.com.ridsoftware.shoppinglist:id/autoCmpNome" class="android.widget.AutoCompleteTextView" package="br.com.ridsoftware.shoppinglist" content-desc="" checkable="false" checked="false" clickable="true" enabled="true" focusable="true" focused="false" scrollable="false" long-clickable="true" password="false" selected="false" bounds="[40,303][1040,416]" drawing-order="1" hint="Nombre" /></node></node><node NAF="true" index="1" text="" resource-id="br.com.ridsoftware.shoppinglist:id/txtEntradaVoz" class="android.widget.TextView" package="br.com.ridsoftware.shoppinglist" content-desc="" checkable="false" checked="false" clickable="true" enabled="true" focusable="true" focused="false" scrollable="false" long-clickable="false" password="false" selected="false" bounds="[930,274][1040,416]" drawing-order="2" hint="" /></node><node index="1" text="" resource-id="" class="android.widget.LinearLayout" package="br.com.ridsoftware.shoppinglist" content-desc="" checkable="false" checked="false" clickable="false" enabled="true" focusable="false" focused="false" scrollable="false" long-clickable="false" password="false" selected="false" bounds="[40,436][1040,578]" drawing-order="2" hint=""><node index="0" text="" resource-id="" class="android.widget.LinearLayout" package="br.com.ridsoftware.shoppinglist" content-desc="" checkable="false" checked="false" clickable="false" enabled="true" focusable="false" focused="false" scrollable="false" long-clickable="false" password="false" selected="false" bounds="[40,436][540,578]" drawing-order="1" hint=""><node index="0" text="" resource-id="" class="android.widget.LinearLayout" package="br.com.ridsoftware.shoppinglist" content-desc="" checkable="false" checked="false" clickable="false" enabled="true" focusable="false" focused="false" scrollable="false" long-clickable="false" password="false" selected="false" bounds="[40,436][540,578]" drawing-order="1" hint=""><node index="0" text="" resource-id="" class="android.widget.FrameLayout" package="br.com.ridsoftware.shoppinglist" content-desc="" checkable="false" checked="false" clickable="false" enabled="true" focusable="false" focused="false" scrollable="false" long-clickable="false" password="false" selected="false" bounds="[40,465][540,578]" drawing-order="1" hint=""><node index="0" text="1" resource-id="br.com.ridsoftware.shoppinglist:id/edtQuantidade" class="android.widget.EditText" package="br.com.ridsoftware.shoppinglist" content-desc="" checkable="false" checked="false" clickable="true" enabled="true" focusable="true" focused="false" scrollable="false" long-clickable="true" password="false" selected="false" bounds="[40,465][540,578]" drawing-order="1" hint="Cantidad" /></node></node></node><node index="1" text="" resource-id="" class="android.widget.RelativeLayout" package="br.com.ridsoftware.shoppinglist" content-desc="" checkable="false" checked="false" clickable="false" enabled="true" focusable="false" focused="false" scrollable="false" long-clickable="false" password="false" selected="false" bounds="[540,436][1040,578]" drawing-order="2" hint=""><node index="0" text="Unidad" resource-id="" class="android.widget.TextView" package="br.com.ridsoftware.shoppinglist" content-desc="" checkable="false" checked="false" clickable="false" enabled="true" focusable="false" focused="false" scrollable="false" long-clickable="false" password="false" selected="false" bounds="[553,436][647,477]" drawing-order="1" hint="" /><node index="1" text="" resource-id="br.com.ridsoftware.shoppinglist:id/spnUnidade" class="android.widget.Spinner" package="br.com.ridsoftware.shoppinglist" content-desc="" checkable="false" checked="false" clickable="true" enabled="true" focusable="true" focused="false" scrollable="true" long-clickable="true" password="false" selected="false" bounds="[553,472][1040,578]" drawing-order="2" hint=""><node index="0" text="Paquete" resource-id="android:id/text1" class="android.widget.TextView" package="br.com.ridsoftware.shoppinglist" content-desc="" checkable="false" checked="false" clickable="false" enabled="true" focusable="false" focused="false" scrollable="false" long-clickable="false" password="false" selected="false" bounds="[563,497][920,551]" drawing-order="1" hint="" /></node></node></node><node index="2" text="" resource-id="" class="android.widget.LinearLayout" package="br.com.ridsoftware.shoppinglist" content-desc="" checkable="false" checked="false" clickable="false" enabled="true" focusable="false" focused="false" scrollable="false" long-clickable="false" password="false" selected="false" bounds="[40,598][1040,740]" drawing-order="3" hint=""><node index="0" text="" resource-id="" class="android.widget.LinearLayout" package="br.com.ridsoftware.shoppinglist" content-desc="" checkable="false" checked="false" clickable="false" enabled="true" focusable="false" focused="false" scrollable="false" long-clickable="false" password="false" selected="false" bounds="[40,598][540,740]" drawing-order="1" hint=""><node index="0" text="" resource-id="" class="android.widget.LinearLayout" package="br.com.ridsoftware.shoppinglist" content-desc="" checkable="false" checked="false" clickable="false" enabled="true" focusable="false" focused="false" scrollable="false" long-clickable="false" password="false" selected="false" bounds="[40,598][540,740]" drawing-order="1" hint=""><node index="0" text="" resource-id="" class="android.widget.FrameLayout" package="br.com.ridsoftware.shoppinglist" content-desc="" checkable="false" checked="false" clickable="false" enabled="true" focusable="false" focused="false" scrollable="false" long-clickable="false" password="false" selected="false" bounds="[40,627][540,740]" drawing-order="1" hint=""><node index="0" text="4990.00" resource-id="br.com.ridsoftware.shoppinglist:id/edtValor" class="android.widget.EditText" package="br.com.ridsoftware.shoppinglist" content-desc="" checkable="false" checked="false" clickable="true" enabled="true" focusable="true" focused="true" scrollable="false" long-clickable="true" password="false" selected="false" bounds="[40,627][540,740]" drawing-order="1" hint="Precio" /></node></node></node><node index="1" text="" resource-id="" class="android.widget.RelativeLayout" package="br.com.ridsoftware.shoppinglist" content-desc="" checkable="false" checked="false" clickable="false" enabled="true" focusable="false" focused="false" scrollable="false" long-clickable="false" password="false" selected="false" bounds="[540,598][1040,740]" drawing-order="2" hint=""><node index="0" text="Unidad" resource-id="" class="android.widget.TextView" package="br.com.ridsoftware.shoppinglist" content-desc="" checkable="false" checked="false" clickable="false" enabled="true" focusable="false" focused="false" scrollable="false" long-clickable="false" password="false" selected="false" bounds="[553,598][647,639]" drawing-order="1" hint="" /><node index="1" text="" resource-id="br.com.ridsoftware.shoppinglist:id/spnPriceUnit" class="android.widget.Spinner" package="br.com.ridsoftware.shoppinglist" content-desc="" checkable="false" checked="false" clickable="true" enabled="true" focusable="true" focused="false" scrollable="true" long-clickable="true" password="false" selected="false" bounds="[553,634][1040,740]" drawing-order="2" hint=""><node index="0" text="un" resource-id="android:id/text1" class="android.widget.TextView" package="br.com.ridsoftware.shoppinglist" content-desc="" checkable="false" checked="false" clickable="false" enabled="true" focusable="false" focused="false" scrollable="false" long-clickable="false" password="false" selected="false" bounds="[563,659][920,713]" drawing-order="1" hint="" /></node></node></node><node index="3" text="" resource-id="" class="android.widget.LinearLayout" package="br.com.ridsoftware.shoppinglist" content-desc="" checkable="false" checked="false" clickable="false" enabled="true" focusable="false" focused="false" scrollable="false" long-clickable="false" password="false" selected="false" bounds="[40,760][470,840]" drawing-order="4" hint=""><node index="0" text="Introduce en el carrito" resource-id="br.com.ridsoftware.shoppinglist:id/cbxCarrinho" class="android.widget.CheckBox" package="br.com.ridsoftware.shoppinglist" content-desc="" checkable="true" checked="false" clickable="true" enabled="true" focusable="true" focused="false" scrollable="false" long-clickable="false" password="false" selected="false" bounds="[40,760][470,840]" drawing-order="1" hint="" /></node><node index="4" text="" resource-id="br.com.ridsoftware.shoppinglist:id/LinearLayoutHeaderTax" class="android.widget.LinearLayout" package="br.com.ridsoftware.shoppinglist" content-desc="" checkable="false" checked="false" clickable="false" enabled="true" focusable="false" focused="false" scrollable="false" long-clickable="false" password="false" selected="false" bounds="[40,860][1040,901]" drawing-order="5" hint=""><node index="0" text="" resource-id="" class="android.widget.RelativeLayout" package="br.com.ridsoftware.shoppinglist" content-desc="" checkable="false" checked="false" clickable="false" enabled="true" focusable="false" focused="false" scrollable="false" long-clickable="false" password="false" selected="false" bounds="[40,860][540,901]" drawing-order="1" hint=""><node index="0" text="Impuesto" resource-id="" class="android.widget.TextView" package="br.com.ridsoftware.shoppinglist" content-desc="" checkable="false" checked="false" clickable="false" enabled="true" focusable="false" focused="false" scrollable="false" long-clickable="false" password="false" selected="false" bounds="[40,860][177,901]" drawing-order="1" hint="" /></node><node index="1" text="" resource-id="" class="android.widget.RelativeLayout" package="br.com.ridsoftware.shoppinglist" content-desc="" checkable="false" checked="false" clickable="false" enabled="true" focusable="false" focused="false" scrollable="false" long-clickable="false" password="false" selected="false" bounds="[540,860][1040,901]" drawing-order="2" hint=""><node index="0" text="Cupón" resource-id="" class="android.widget.TextView" package="br.com.ridsoftware.shoppinglist" content-desc="" checkable="false" checked="false" clickable="false" enabled="true" focusable="false" focused="false" scrollable="false" long-clickable="false" password="false" selected="false" bounds="[565,860][650,901]" drawing-order="1" hint="" /></node></node><node index="5" text="" resource-id="br.com.ridsoftware.shoppinglist:id/LinearLayoutTax" class="android.widget.LinearLayout" package="br.com.ridsoftware.shoppinglist" content-desc="" checkable="false" checked="false" clickable="false" enabled="true" focusable="false" focused="false" scrollable="false" long-clickable="false" password="false" selected="false" bounds="[40,901][1040,1014]" drawing-order="6" hint=""><node index="0" text="" resource-id="" class="android.widget.RelativeLayout" package="br.com.ridsoftware.shoppinglist" content-desc="" checkable="false" checked="false" clickable="false" enabled="true" focusable="false" focused="false" scrollable="false" long-clickable="false" password="false" selected="false" bounds="[40,901][540,1014]" drawing-order="1" hint=""><node NAF="true" index="0" text="" resource-id="br.com.ridsoftware.shoppinglist:id/edtTax" class="android.widget.EditText" package="br.com.ridsoftware.shoppinglist" content-desc="" checkable="false" checked="false" clickable="true" enabled="true" focusable="false" focused="false" scrollable="false" long-clickable="true" password="false" selected="false" bounds="[40,901][540,1014]" drawing-order="1" hint="" /></node><node index="1" text="" resource-id="" class="android.widget.RelativeLayout" package="br.com.ridsoftware.shoppinglist" content-desc="" checkable="false" checked="false" clickable="false" enabled="true" focusable="false" focused="false" scrollable="false" long-clickable="false" password="false" selected="false" bounds="[540,901][1040,1014]" drawing-order="2" hint=""><node NAF="true" index="0" text="" resource-id="br.com.ridsoftware.shoppinglist:id/edtCoupon" class="android.widget.EditText" package="br.com.ridsoftware.shoppinglist" content-desc="" checkable="false" checked="false" clickable="true" enabled="true" focusable="false" focused="false" scrollable="false" long-clickable="true" password="false" selected="false" bounds="[540,901][1040,1014]" drawing-order="1" hint="" /></node></node><node index="6" text="" resource-id="" class="android.widget.RelativeLayout" package="br.com.ridsoftware.shoppinglist" content-desc="" checkable="false" checked="false" clickable="false" enabled="true" focusable="false" focused="false" scrollable="false" long-clickable="false" password="false" selected="false" bounds="[40,1034][1040,1181]" drawing-order="7" hint=""><node index="0" text="Categoría" resource-id="br.com.ridsoftware.shoppinglist:id/txtCategoria" class="android.widget.TextView" package="br.com.ridsoftware.shoppinglist" content-desc="" checkable="false" checked="false" clickable="false" enabled="true" focusable="false" focused="false" scrollable="false" long-clickable="false" password="false" selected="false" bounds="[40,1034][179,1075]" drawing-order="1" hint="" /><node index="1" text="" resource-id="br.com.ridsoftware.shoppinglist:id/spnCategoria" class="android.widget.Spinner" package="br.com.ridsoftware.shoppinglist" content-desc="" checkable="false" checked="false" clickable="true" enabled="true" focusable="true" focused="false" scrollable="true" long-clickable="true" password="false" selected="false" bounds="[40,1075][900,1181]" drawing-order="2" hint=""><node index="0" text="Sin categoría" resource-id="android:id/text1" class="android.widget.TextView" package="br.com.ridsoftware.shoppinglist" content-desc="" checkable="false" checked="false" clickable="false" enabled="true" focusable="false" focused="false" scrollable="false" long-clickable="false" password="false" selected="false" bounds="[50,1100][780,1154]" drawing-order="1" hint="" /></node><node NAF="true" index="2" text="" resource-id="br.com.ridsoftware.shoppinglist:id/btnCategoria" class="android.widget.Button" package="br.com.ridsoftware.shoppinglist" content-desc="" checkable="false" checked="false" clickable="true" enabled="true" focusable="true" focused="false" scrollable="false" long-clickable="false" password="false" selected="false" bounds="[900,1051][1040,1181]" drawing-order="3" hint="" /></node><node index="7" text="" resource-id="" class="android.widget.LinearLayout" package="br.com.ridsoftware.shoppinglist" content-desc="" checkable="false" checked="false" clickable="false" enabled="true" focusable="false" focused="false" scrollable="false" long-clickable="false" password="false" selected="false" bounds="[40,1201][1040,1343]" drawing-order="8" hint=""><node index="0" text="" resource-id="" class="android.widget.FrameLayout" package="br.com.ridsoftware.shoppinglist" content-desc="" checkable="false" checked="false" clickable="false" enabled="true" focusable="false" focused="false" scrollable="false" long-clickable="false" password="false" selected="false" bounds="[40,1230][1040,1343]" drawing-order="1" hint=""><node index="0" text="Nota" resource-id="br.com.ridsoftware.shoppinglist:id/edtObservacao" class="android.widget.EditText" package="br.com.ridsoftware.shoppinglist" content-desc="" checkable="false" checked="false" clickable="true" enabled="true" focusable="true" focused="false" scrollable="false" long-clickable="true" password="false" selected="false" bounds="[40,1230][1040,1343]" drawing-order="1" hint="Nota" /></node></node><node index="8" text="Fotografía" resource-id="" class="android.widget.TextView" package="br.com.ridsoftware.shoppinglist" content-desc="" checkable="false" checked="false" clickable="false" enabled="true" focusable="false" focused="false" scrollable="false" long-clickable="false" password="false" selected="false" bounds="[40,1363][190,1404]" drawing-order="9" hint="" /><node NAF="true" index="9" text="" resource-id="br.com.ridsoftware.shoppinglist:id/imgFoto" class="android.widget.ImageButton" package="br.com.ridsoftware.shoppinglist" content-desc="" checkable="false" checked="false" clickable="true" enabled="true" focusable="true" focused="false" scrollable="false" long-clickable="false" password="false" selected="false" bounds="[40,1417][415,1560]" drawing-order="10" hint="" /></node></node></node></node></node></node></node><node index="1" text="" resource-id="android:id/statusBarBackground" class="android.view.View" package="br.com.ridsoftware.shoppinglist" content-desc="" checkable="false" checked="false" clickable="false" enabled="true" focusable="false" focused="false" scrollable="false" long-clickable="false" password="false" selected="false" bounds="[0,0][1080,94]" drawing-order="3" hint="" /><node index="2" text="" resource-id="android:id/navigationBarBackground" class="android.view.View" package="br.com.ridsoftware.shoppinglist" content-desc="" checkable="false" checked="false" clickable="false" enabled="true" focusable="false" focused="false" scrollable="false" long-clickable="false" password="false" selected="false" bounds="[0,2340][1080,2400]" drawing-order="2" hint="" /></node></hierarchy>